<routes xmlns:xsi="http://www.w3.org/2001/XMLSchema-instance" xsi:noNamespaceSchemaLocation="http://sumo.dlr.de/xsd/routes_file.xsd">    <vehicle id="1" depart="1">  <route edges="62 29"/>  </vehicle>    <vehicle id="2" depart="2">  <route edges="73 310"/>  </vehicle>    <vehicle id="3" depart="3">  <route edges="84 411"/>  </vehicle>    <vehicle id="4" depart="4">  <route edges="54 43 32 21"/>  </vehicle>    <vehicle id="5" depart="5">  <route edges="92 26"/>  </vehicle>    <vehicle id="6" depart="6">  <route edges="103 37"/>  </vehicle>    <vehicle id="7" depart="7">  <route edges="114 48"/>  </vehicle>    <vehicle id="8" depart="8">  <route edges="12 23 34 45"/>  </vehicle>    <vehicle id="9" depart="9">  <route edges="62 29"/>  </vehicle>    <vehicle id="10" depart="10">  <route edges="73 310"/>  </vehicle>    <vehicle id="11" depart="11">  <route edges="84 411"/>  </vehicle>    <vehicle id="12" depart="12">  <route edges="54 43 32 21"/>  </vehicle>    <vehicle id="13" depart="13">  <route edges="92 26"/>  </vehicle>    <vehicle id="14" depart="14">  <route edges="103 37"/>  </vehicle>    <vehicle id="15" depart="15">  <route edges="114 48"/>  </vehicle>    <vehicle id="16" depart="16">  <route edges="12 23 34 45"/>  </vehicle>    <vehicle id="17" depart="17">  <route edges="62 29"/>  </vehicle>    <vehicle id="18" depart="18">  <route edges="73 310"/>  </vehicle>    <vehicle id="19" depart="19">  <route edges="84 411"/>  </vehicle>    <vehicle id="20" depart="20">  <route edges="54 43 32 21"/>  </vehicle>    <vehicle id="21" depart="21">  <route edges="92 26"/>  </vehicle>    <vehicle id="22" depart="22">  <route edges="103 37"/>  </vehicle>    <vehicle id="23" depart="23">  <route edges="114 48"/>  </vehicle>    <vehicle id="24" depart="24">  <route edges="12 23 34 45"/>  </vehicle>    <vehicle id="25" depart="25">  <route edges="62 29"/>  </vehicle>    <vehicle id="26" depart="26">  <route edges="73 310"/>  </vehicle>    <vehicle id="27" depart="27">  <route edges="84 411"/>  </vehicle>    <vehicle id="28" depart="28">  <route edges="54 43 32 21"/>  </vehicle>    <vehicle id="29" depart="29">  <route edges="92 26"/>  </vehicle>    <vehicle id="30" depart="30">  <route edges="103 37"/>  </vehicle>    <vehicle id="31" depart="31">  <route edges="114 48"/>  </vehicle>    <vehicle id="32" depart="32">  <route edges="12 23 34 45"/>  </vehicle>    <vehicle id="33" depart="33">  <route edges="62 29"/>  </vehicle>    <vehicle id="34" depart="34">  <route edges="73 310"/>  </vehicle>    <vehicle id="35" depart="35">  <route edges="84 411"/>  </vehicle>    <vehicle id="36" depart="36">  <route edges="54 43 32 21"/>  </vehicle>    <vehicle id="37" depart="37">  <route edges="92 26"/>  </vehicle>    <vehicle id="38" depart="38">  <route edges="103 37"/>  </vehicle>    <vehicle id="39" depart="39">  <route edges="114 48"/>  </vehicle>    <vehicle id="40" depart="40">  <route edges="12 23 34 45"/>  </vehicle>    <vehicle id="41" depart="41">  <route edges="62 29"/>  </vehicle>    <vehicle id="42" depart="42">  <route edges="73 310"/>  </vehicle>    <vehicle id="43" depart="43">  <route edges="84 411"/>  </vehicle>    <vehicle id="44" depart="44">  <route edges="54 43 32 21"/>  </vehicle>    <vehicle id="45" depart="45">  <route edges="92 26"/>  </vehicle>    <vehicle id="46" depart="46">  <route edges="103 37"/>  </vehicle>    <vehicle id="47" depart="47">  <route edges="114 48"/>  </vehicle>    <vehicle id="48" depart="48">  <route edges="12 23 34 45"/>  </vehicle>    <vehicle id="49" depart="49">  <route edges="62 29"/>  </vehicle>    <vehicle id="50" depart="50">  <route edges="73 310"/>  </vehicle>    <vehicle id="51" depart="51">  <route edges="84 411"/>  </vehicle>    <vehicle id="52" depart="52">  <route edges="54 43 32 21"/>  </vehicle>    <vehicle id="53" depart="53">  <route edges="92 26"/>  </vehicle>    <vehicle id="54" depart="54">  <route edges="103 37"/>  </vehicle>    <vehicle id="55" depart="55">  <route edges="114 48"/>  </vehicle>    <vehicle id="56" depart="56">  <route edges="12 23 34 45"/>  </vehicle>    <vehicle id="57" depart="57">  <route edges="62 29"/>  </vehicle>    <vehicle id="58" depart="58">  <route edges="73 310"/>  </vehicle>    <vehicle id="59" depart="59">  <route edges="84 411"/>  </vehicle>    <vehicle id="60" depart="60">  <route edges="54 43 32 21"/>  </vehicle>    <vehicle id="61" depart="61">  <route edges="92 26"/>  </vehicle>    <vehicle id="62" depart="62">  <route edges="103 37"/>  </vehicle>    <vehicle id="63" depart="63">  <route edges="114 48"/>  </vehicle>    <vehicle id="64" depart="64">  <route edges="12 23 34 45"/>  </vehicle>    <vehicle id="65" depart="65">  <route edges="62 29"/>  </vehicle>    <vehicle id="66" depart="66">  <route edges="73 310"/>  </vehicle>    <vehicle id="67" depart="67">  <route edges="84 411"/>  </vehicle>    <vehicle id="68" depart="68">  <route edges="54 43 32 21"/>  </vehicle>    <vehicle id="69" depart="69">  <route edges="92 26"/>  </vehicle>    <vehicle id="70" depart="70">  <route edges="103 37"/>  </vehicle>    <vehicle id="71" depart="71">  <route edges="114 48"/>  </vehicle>    <vehicle id="72" depart="72">  <route edges="12 23 34 45"/>  </vehicle>    <vehicle id="73" depart="73">  <route edges="62 29"/>  </vehicle>    <vehicle id="74" depart="74">  <route edges="73 310"/>  </vehicle>    <vehicle id="75" depart="75">  <route edges="84 411"/>  </vehicle>    <vehicle id="76" depart="76">  <route edges="54 43 32 21"/>  </vehicle>    <vehicle id="77" depart="77">  <route edges="92 26"/>  </vehicle>    <vehicle id="78" depart="78">  <route edges="103 37"/>  </vehicle>    <vehicle id="79" depart="79">  <route edges="114 48"/>  </vehicle>    <vehicle id="80" depart="80">  <route edges="12 23 34 45"/>  </vehicle>    <vehicle id="81" depart="81">  <route edges="62 29"/>  </vehicle>    <vehicle id="82" depart="82">  <route edges="73 310"/>  </vehicle>    <vehicle id="83" depart="83">  <route edges="84 411"/>  </vehicle>    <vehicle id="84" depart="84">  <route edges="54 43 32 21"/>  </vehicle>    <vehicle id="85" depart="85">  <route edges="92 26"/>  </vehicle>    <vehicle id="86" depart="86">  <route edges="103 37"/>  </vehicle>    <vehicle id="87" depart="87">  <route edges="114 48"/>  </vehicle>    <vehicle id="88" depart="88">  <route edges="12 23 34 45"/>  </vehicle>    <vehicle id="89" depart="89">  <route edges="62 29"/>  </vehicle>    <vehicle id="90" depart="90">  <route edges="73 310"/>  </vehicle>    <vehicle id="91" depart="91">  <route edges="84 411"/>  </vehicle>    <vehicle id="92" depart="92">  <route edges="54 43 32 21"/>  </vehicle>    <vehicle id="93" depart="93">  <route edges="92 26"/>  </vehicle>    <vehicle id="94" depart="94">  <route edges="103 37"/>  </vehicle>    <vehicle id="95" depart="95">  <route edges="114 48"/>  </vehicle>    <vehicle id="96" depart="96">  <route edges="12 23 34 45"/>  </vehicle>    <vehicle id="97" depart="97">  <route edges="62 29"/>  </vehicle>    <vehicle id="98" depart="98">  <route edges="73 310"/>  </vehicle>    <vehicle id="99" depart="99">  <route edges="84 411"/>  </vehicle>    <vehicle id="100" depart="100">  <route edges="54 43 32 21"/>  </vehicle>    <vehicle id="101" depart="101">  <route edges="92 26"/>  </vehicle>    <vehicle id="102" depart="102">  <route edges="103 37"/>  </vehicle>    <vehicle id="103" depart="103">  <route edges="114 48"/>  </vehicle>    <vehicle id="104" depart="104">  <route edges="12 23 34 45"/>  </vehicle>    <vehicle id="105" depart="105">  <route edges="62 29"/>  </vehicle>    <vehicle id="106" depart="106">  <route edges="73 310"/>  </vehicle>    <vehicle id="107" depart="107">  <route edges="84 411"/>  </vehicle>    <vehicle id="108" depart="108">  <route edges="54 43 32 21"/>  </vehicle>    <vehicle id="109" depart="109">  <route edges="92 26"/>  </vehicle>    <vehicle id="110" depart="110">  <route edges="103 37"/>  </vehicle>    <vehicle id="111" depart="111">  <route edges="114 48"/>  </vehicle>    <vehicle id="112" depart="112">  <route edges="12 23 34 45"/>  </vehicle>    <vehicle id="113" depart="113">  <route edges="62 29"/>  </vehicle>    <vehicle id="114" depart="114">  <route edges="73 310"/>  </vehicle>    <vehicle id="115" depart="115">  <route edges="84 411"/>  </vehicle>    <vehicle id="116" depart="116">  <route edges="54 43 32 21"/>  </vehicle>    <vehicle id="117" depart="117">  <route edges="92 26"/>  </vehicle>    <vehicle id="118" depart="118">  <route edges="103 37"/>  </vehicle>    <vehicle id="119" depart="119">  <route edges="114 48"/>  </vehicle>    <vehicle id="120" depart="120">  <route edges="12 23 34 45"/>  </vehicle>    <vehicle id="121" depart="121">  <route edges="62 29"/>  </vehicle>    <vehicle id="122" depart="122">  <route edges="73 310"/>  </vehicle>    <vehicle id="123" depart="123">  <route edges="84 411"/>  </vehicle>    <vehicle id="124" depart="124">  <route edges="54 43 32 21"/>  </vehicle>    <vehicle id="125" depart="125">  <route edges="92 26"/>  </vehicle>    <vehicle id="126" depart="126">  <route edges="103 37"/>  </vehicle>    <vehicle id="127" depart="127">  <route edges="114 48"/>  </vehicle>    <vehicle id="128" depart="128">  <route edges="12 23 34 45"/>  </vehicle>    <vehicle id="129" depart="129">  <route edges="62 29"/>  </vehicle>    <vehicle id="130" depart="130">  <route edges="73 310"/>  </vehicle>    <vehicle id="131" depart="131">  <route edges="84 411"/>  </vehicle>    <vehicle id="132" depart="132">  <route edges="54 43 32 21"/>  </vehicle>    <vehicle id="133" depart="133">  <route edges="92 26"/>  </vehicle>    <vehicle id="134" depart="134">  <route edges="103 37"/>  </vehicle>    <vehicle id="135" depart="135">  <route edges="114 48"/>  </vehicle>    <vehicle id="136" depart="136">  <route edges="12 23 34 45"/>  </vehicle>    <vehicle id="137" depart="137">  <route edges="62 29"/>  </vehicle>    <vehicle id="138" depart="138">  <route edges="73 310"/>  </vehicle>    <vehicle id="139" depart="139">  <route edges="84 411"/>  </vehicle>    <vehicle id="140" depart="140">  <route edges="54 43 32 21"/>  </vehicle>    <vehicle id="141" depart="141">  <route edges="92 26"/>  </vehicle>    <vehicle id="142" depart="142">  <route edges="103 37"/>  </vehicle>    <vehicle id="143" depart="143">  <route edges="114 48"/>  </vehicle>    <vehicle id="144" depart="144">  <route edges="12 23 34 45"/>  </vehicle>    <vehicle id="145" depart="145">  <route edges="62 29"/>  </vehicle>    <vehicle id="146" depart="146">  <route edges="73 310"/>  </vehicle>    <vehicle id="147" depart="147">  <route edges="84 411"/>  </vehicle>    <vehicle id="148" depart="148">  <route edges="54 43 32 21"/>  </vehicle>    <vehicle id="149" depart="149">  <route edges="92 26"/>  </vehicle>    <vehicle id="150" depart="150">  <route edges="103 37"/>  </vehicle>    <vehicle id="151" depart="151">  <route edges="114 48"/>  </vehicle>    <vehicle id="152" depart="152">  <route edges="12 23 34 45"/>  </vehicle>    <vehicle id="153" depart="153">  <route edges="62 29"/>  </vehicle>    <vehicle id="154" depart="154">  <route edges="73 310"/>  </vehicle>    <vehicle id="155" depart="155">  <route edges="84 411"/>  </vehicle>    <vehicle id="156" depart="156">  <route edges="54 43 32 21"/>  </vehicle>    <vehicle id="157" depart="157">  <route edges="92 26"/>  </vehicle>    <vehicle id="158" depart="158">  <route edges="103 37"/>  </vehicle>    <vehicle id="159" depart="159">  <route edges="114 48"/>  </vehicle>    <vehicle id="160" depart="160">  <route edges="12 23 34 45"/>  </vehicle>    <vehicle id="161" depart="161">  <route edges="62 29"/>  </vehicle>    <vehicle id="162" depart="162">  <route edges="73 310"/>  </vehicle>    <vehicle id="163" depart="163">  <route edges="84 411"/>  </vehicle>    <vehicle id="164" depart="164">  <route edges="54 43 32 21"/>  </vehicle>    <vehicle id="165" depart="165">  <route edges="92 26"/>  </vehicle>    <vehicle id="166" depart="166">  <route edges="103 37"/>  </vehicle>    <vehicle id="167" depart="167">  <route edges="114 48"/>  </vehicle>    <vehicle id="168" depart="168">  <route edges="12 23 34 45"/>  </vehicle>    <vehicle id="169" depart="169">  <route edges="62 29"/>  </vehicle>    <vehicle id="170" depart="170">  <route edges="73 310"/>  </vehicle>    <vehicle id="171" depart="171">  <route edges="84 411"/>  </vehicle>    <vehicle id="172" depart="172">  <route edges="54 43 32 21"/>  </vehicle>    <vehicle id="173" depart="173">  <route edges="92 26"/>  </vehicle>    <vehicle id="174" depart="174">  <route edges="103 37"/>  </vehicle>    <vehicle id="175" depart="175">  <route edges="114 48"/>  </vehicle>    <vehicle id="176" depart="176">  <route edges="12 23 34 45"/>  </vehicle>    <vehicle id="177" depart="177">  <route edges="62 29"/>  </vehicle>    <vehicle id="178" depart="178">  <route edges="73 310"/>  </vehicle>    <vehicle id="179" depart="179">  <route edges="84 411"/>  </vehicle>    <vehicle id="180" depart="180">  <route edges="54 43 32 21"/>  </vehicle>    <vehicle id="181" depart="181">  <route edges="92 26"/>  </vehicle>    <vehicle id="182" depart="182">  <route edges="103 37"/>  </vehicle>    <vehicle id="183" depart="183">  <route edges="114 48"/>  </vehicle>    <vehicle id="184" depart="184">  <route edges="12 23 34 45"/>  </vehicle>    <vehicle id="185" depart="185">  <route edges="62 29"/>  </vehicle>    <vehicle id="186" depart="186">  <route edges="73 310"/>  </vehicle>    <vehicle id="187" depart="187">  <route edges="84 411"/>  </vehicle>    <vehicle id="188" depart="188">  <route edges="54 43 32 21"/>  </vehicle>    <vehicle id="189" depart="189">  <route edges="92 26"/>  </vehicle>    <vehicle id="190" depart="190">  <route edges="103 37"/>  </vehicle>    <vehicle id="191" depart="191">  <route edges="114 48"/>  </vehicle>    <vehicle id="192" depart="192">  <route edges="12 23 34 45"/>  </vehicle>    <vehicle id="193" depart="193">  <route edges="62 29"/>  </vehicle>    <vehicle id="194" depart="194">  <route edges="73 310"/>  </vehicle>    <vehicle id="195" depart="195">  <route edges="84 411"/>  </vehicle>    <vehicle id="196" depart="196">  <route edges="54 43 32 21"/>  </vehicle>    <vehicle id="197" depart="197">  <route edges="92 26"/>  </vehicle>    <vehicle id="198" depart="198">  <route edges="103 37"/>  </vehicle>    <vehicle id="199" depart="199">  <route edges="114 48"/>  </vehicle>    <vehicle id="200" depart="200">  <route edges="12 23 34 45"/>  </vehicle>    <vehicle id="201" depart="201">  <route edges="62 29"/>  </vehicle>    <vehicle id="202" depart="202">  <route edges="73 310"/>  </vehicle>    <vehicle id="203" depart="203">  <route edges="84 411"/>  </vehicle>    <vehicle id="204" depart="204">  <route edges="54 43 32 21"/>  </vehicle>    <vehicle id="205" depart="205">  <route edges="92 26"/>  </vehicle>    <vehicle id="206" depart="206">  <route edges="103 37"/>  </vehicle>    <vehicle id="207" depart="207">  <route edges="114 48"/>  </vehicle>    <vehicle id="208" depart="208">  <route edges="12 23 34 45"/>  </vehicle>    <vehicle id="209" depart="209">  <route edges="62 29"/>  </vehicle>    <vehicle id="210" depart="210">  <route edges="73 310"/>  </vehicle>    <vehicle id="211" depart="211">  <route edges="84 411"/>  </vehicle>    <vehicle id="212" depart="212">  <route edges="54 43 32 21"/>  </vehicle>    <vehicle id="213" depart="213">  <route edges="92 26"/>  </vehicle>    <vehicle id="214" depart="214">  <route edges="103 37"/>  </vehicle>    <vehicle id="215" depart="215">  <route edges="114 48"/>  </vehicle>    <vehicle id="216" depart="216">  <route edges="12 23 34 45"/>  </vehicle>    <vehicle id="217" depart="217">  <route edges="62 29"/>  </vehicle>    <vehicle id="218" depart="218">  <route edges="73 310"/>  </vehicle>    <vehicle id="219" depart="219">  <route edges="84 411"/>  </vehicle>    <vehicle id="220" depart="220">  <route edges="54 43 32 21"/>  </vehicle>    <vehicle id="221" depart="221">  <route edges="92 26"/>  </vehicle>    <vehicle id="222" depart="222">  <route edges="103 37"/>  </vehicle>    <vehicle id="223" depart="223">  <route edges="114 48"/>  </vehicle>    <vehicle id="224" depart="224">  <route edges="12 23 34 45"/>  </vehicle>    <vehicle id="225" depart="225">  <route edges="62 29"/>  </vehicle>    <vehicle id="226" depart="226">  <route edges="73 310"/>  </vehicle>    <vehicle id="227" depart="227">  <route edges="84 411"/>  </vehicle>    <vehicle id="228" depart="228">  <route edges="54 43 32 21"/>  </vehicle>    <vehicle id="229" depart="229">  <route edges="92 26"/>  </vehicle>    <vehicle id="230" depart="230">  <route edges="103 37"/>  </vehicle>    <vehicle id="231" depart="231">  <route edges="114 48"/>  </vehicle>    <vehicle id="232" depart="232">  <route edges="12 23 34 45"/>  </vehicle>    <vehicle id="233" depart="233">  <route edges="62 29"/>  </vehicle>    <vehicle id="234" depart="234">  <route edges="73 310"/>  </vehicle>    <vehicle id="235" depart="235">  <route edges="84 411"/>  </vehicle>    <vehicle id="236" depart="236">  <route edges="54 43 32 21"/>  </vehicle>    <vehicle id="237" depart="237">  <route edges="92 26"/>  </vehicle>    <vehicle id="238" depart="238">  <route edges="103 37"/>  </vehicle>    <vehicle id="239" depart="239">  <route edges="114 48"/>  </vehicle>    <vehicle id="240" depart="240">  <route edges="12 23 34 45"/>  </vehicle>    <vehicle id="241" depart="241">  <route edges="62 29"/>  </vehicle>    <vehicle id="242" depart="242">  <route edges="73 310"/>  </vehicle>    <vehicle id="243" depart="243">  <route edges="84 411"/>  </vehicle>    <vehicle id="244" depart="244">  <route edges="54 43 32 21"/>  </vehicle>    <vehicle id="245" depart="245">  <route edges="92 26"/>  </vehicle>    <vehicle id="246" depart="246">  <route edges="103 37"/>  </vehicle>    <vehicle id="247" depart="247">  <route edges="114 48"/>  </vehicle>    <vehicle id="248" depart="248">  <route edges="12 23 34 45"/>  </vehicle>    <vehicle id="249" depart="249">  <route edges="62 29"/>  </vehicle>    <vehicle id="250" depart="250">  <route edges="73 310"/>  </vehicle>    <vehicle id="251" depart="251">  <route edges="84 411"/>  </vehicle>    <vehicle id="252" depart="252">  <route edges="54 43 32 21"/>  </vehicle>    <vehicle id="253" depart="253">  <route edges="92 26"/>  </vehicle>    <vehicle id="254" depart="254">  <route edges="103 37"/>  </vehicle>    <vehicle id="255" depart="255">  <route edges="114 48"/>  </vehicle>    <vehicle id="256" depart="256">  <route edges="12 23 34 45"/>  </vehicle>    <vehicle id="257" depart="257">  <route edges="62 29"/>  </vehicle>    <vehicle id="258" depart="258">  <route edges="73 310"/>  </vehicle>    <vehicle id="259" depart="259">  <route edges="84 411"/>  </vehicle>    <vehicle id="260" depart="260">  <route edges="54 43 32 21"/>  </vehicle>    <vehicle id="261" depart="261">  <route edges="92 26"/>  </vehicle>    <vehicle id="262" depart="262">  <route edges="103 37"/>  </vehicle>    <vehicle id="263" depart="263">  <route edges="114 48"/>  </vehicle>    <vehicle id="264" depart="264">  <route edges="12 23 34 45"/>  </vehicle>    <vehicle id="265" depart="265">  <route edges="62 29"/>  </vehicle>    <vehicle id="266" depart="266">  <route edges="73 310"/>  </vehicle>    <vehicle id="267" depart="267">  <route edges="84 411"/>  </vehicle>    <vehicle id="268" depart="268">  <route edges="54 43 32 21"/>  </vehicle>    <vehicle id="269" depart="269">  <route edges="92 26"/>  </vehicle>    <vehicle id="270" depart="270">  <route edges="103 37"/>  </vehicle>    <vehicle id="271" depart="271">  <route edges="114 48"/>  </vehicle>    <vehicle id="272" depart="272">  <route edges="12 23 34 45"/>  </vehicle>    <vehicle id="273" depart="273">  <route edges="62 29"/>  </vehicle>    <vehicle id="274" depart="274">  <route edges="73 310"/>  </vehicle>    <vehicle id="275" depart="275">  <route edges="84 411"/>  </vehicle>    <vehicle id="276" depart="276">  <route edges="54 43 32 21"/>  </vehicle>    <vehicle id="277" depart="277">  <route edges="92 26"/>  </vehicle>    <vehicle id="278" depart="278">  <route edges="103 37"/>  </vehicle>    <vehicle id="279" depart="279">  <route edges="114 48"/>  </vehicle>    <vehicle id="280" depart="280">  <route edges="12 23 34 45"/>  </vehicle>    <vehicle id="281" depart="281">  <route edges="62 29"/>  </vehicle>    <vehicle id="282" depart="282">  <route edges="73 310"/>  </vehicle>    <vehicle id="283" depart="283">  <route edges="84 411"/>  </vehicle>    <vehicle id="284" depart="284">  <route edges="54 43 32 21"/>  </vehicle>    <vehicle id="285" depart="285">  <route edges="92 26"/>  </vehicle>    <vehicle id="286" depart="286">  <route edges="103 37"/>  </vehicle>    <vehicle id="287" depart="287">  <route edges="114 48"/>  </vehicle>    <vehicle id="288" depart="288">  <route edges="12 23 34 45"/>  </vehicle>    <vehicle id="289" depart="289">  <route edges="62 29"/>  </vehicle>    <vehicle id="290" depart="290">  <route edges="73 310"/>  </vehicle>    <vehicle id="291" depart="291">  <route edges="84 411"/>  </vehicle>    <vehicle id="292" depart="292">  <route edges="54 43 32 21"/>  </vehicle>    <vehicle id="293" depart="293">  <route edges="92 26"/>  </vehicle>    <vehicle id="294" depart="294">  <route edges="103 37"/>  </vehicle>    <vehicle id="295" depart="295">  <route edges="114 48"/>  </vehicle>    <vehicle id="296" depart="296">  <route edges="12 23 34 45"/>  </vehicle>    <vehicle id="297" depart="297">  <route edges="62 29"/>  </vehicle>    <vehicle id="298" depart="298">  <route edges="73 310"/>  </vehicle>    <vehicle id="299" depart="299">  <route edges="84 411"/>  </vehicle>    <vehicle id="300" depart="300">  <route edges="54 43 32 21"/>  </vehicle>    <vehicle id="301" depart="301">  <route edges="92 26"/>  </vehicle>    <vehicle id="302" depart="302">  <route edges="103 37"/>  </vehicle>    <vehicle id="303" depart="303">  <route edges="114 48"/>  </vehicle>    <vehicle id="304" depart="304">  <route edges="12 23 34 45"/>  </vehicle>    <vehicle id="305" depart="305">  <route edges="62 29"/>  </vehicle>    <vehicle id="306" depart="306">  <route edges="73 310"/>  </vehicle>    <vehicle id="307" depart="307">  <route edges="84 411"/>  </vehicle>    <vehicle id="308" depart="308">  <route edges="54 43 32 21"/>  </vehicle>    <vehicle id="309" depart="309">  <route edges="92 26"/>  </vehicle>    <vehicle id="310" depart="310">  <route edges="103 37"/>  </vehicle>    <vehicle id="311" depart="311">  <route edges="114 48"/>  </vehicle>    <vehicle id="312" depart="312">  <route edges="12 23 34 45"/>  </vehicle>    <vehicle id="313" depart="313">  <route edges="62 29"/>  </vehicle>    <vehicle id="314" depart="314">  <route edges="73 310"/>  </vehicle>    <vehicle id="315" depart="315">  <route edges="84 411"/>  </vehicle>    <vehicle id="316" depart="316">  <route edges="54 43 32 21"/>  </vehicle>    <vehicle id="317" depart="317">  <route edges="92 26"/>  </vehicle>    <vehicle id="318" depart="318">  <route edges="103 37"/>  </vehicle>    <vehicle id="319" depart="319">  <route edges="114 48"/>  </vehicle>    <vehicle id="320" depart="320">  <route edges="12 23 34 45"/>  </vehicle>    <vehicle id="321" depart="321">  <route edges="62 29"/>  </vehicle>    <vehicle id="322" depart="322">  <route edges="73 310"/>  </vehicle>    <vehicle id="323" depart="323">  <route edges="84 411"/>  </vehicle>    <vehicle id="324" depart="324">  <route edges="54 43 32 21"/>  </vehicle>    <vehicle id="325" depart="325">  <route edges="92 26"/>  </vehicle>    <vehicle id="326" depart="326">  <route edges="103 37"/>  </vehicle>    <vehicle id="327" depart="327">  <route edges="114 48"/>  </vehicle>    <vehicle id="328" depart="328">  <route edges="12 23 34 45"/>  </vehicle>    <vehicle id="329" depart="329">  <route edges="62 29"/>  </vehicle>    <vehicle id="330" depart="330">  <route edges="73 310"/>  </vehicle>    <vehicle id="331" depart="331">  <route edges="84 411"/>  </vehicle>    <vehicle id="332" depart="332">  <route edges="54 43 32 21"/>  </vehicle>    <vehicle id="333" depart="333">  <route edges="92 26"/>  </vehicle>    <vehicle id="334" depart="334">  <route edges="103 37"/>  </vehicle>    <vehicle id="335" depart="335">  <route edges="114 48"/>  </vehicle>    <vehicle id="336" depart="336">  <route edges="12 23 34 45"/>  </vehicle>    <vehicle id="337" depart="337">  <route edges="62 29"/>  </vehicle>    <vehicle id="338" depart="338">  <route edges="73 310"/>  </vehicle>    <vehicle id="339" depart="339">  <route edges="84 411"/>  </vehicle>    <vehicle id="340" depart="340">  <route edges="54 43 32 21"/>  </vehicle>    <vehicle id="341" depart="341">  <route edges="92 26"/>  </vehicle>    <vehicle id="342" depart="342">  <route edges="103 37"/>  </vehicle>    <vehicle id="343" depart="343">  <route edges="114 48"/>  </vehicle>    <vehicle id="344" depart="344">  <route edges="12 23 34 45"/>  </vehicle>    <vehicle id="345" depart="345">  <route edges="62 29"/>  </vehicle>    <vehicle id="346" depart="346">  <route edges="73 310"/>  </vehicle>    <vehicle id="347" depart="347">  <route edges="84 411"/>  </vehicle>    <vehicle id="348" depart="348">  <route edges="54 43 32 21"/>  </vehicle>    <vehicle id="349" depart="349">  <route edges="92 26"/>  </vehicle>    <vehicle id="350" depart="350">  <route edges="103 37"/>  </vehicle>    <vehicle id="351" depart="351">  <route edges="114 48"/>  </vehicle>    <vehicle id="352" depart="352">  <route edges="12 23 34 45"/>  </vehicle>    <vehicle id="353" depart="353">  <route edges="62 29"/>  </vehicle>    <vehicle id="354" depart="354">  <route edges="73 310"/>  </vehicle>    <vehicle id="355" depart="355">  <route edges="84 411"/>  </vehicle>    <vehicle id="356" depart="356">  <route edges="54 43 32 21"/>  </vehicle>    <vehicle id="357" depart="357">  <route edges="92 26"/>  </vehicle>    <vehicle id="358" depart="358">  <route edges="103 37"/>  </vehicle>    <vehicle id="359" depart="359">  <route edges="114 48"/>  </vehicle>    <vehicle id="360" depart="360">  <route edges="12 23 34 45"/>  </vehicle>    <vehicle id="361" depart="361">  <route edges="62 29"/>  </vehicle>    <vehicle id="362" depart="362">  <route edges="73 310"/>  </vehicle>    <vehicle id="363" depart="363">  <route edges="84 411"/>  </vehicle>    <vehicle id="364" depart="364">  <route edges="54 43 32 21"/>  </vehicle>    <vehicle id="365" depart="365">  <route edges="92 26"/>  </vehicle>    <vehicle id="366" depart="366">  <route edges="103 37"/>  </vehicle>    <vehicle id="367" depart="367">  <route edges="114 48"/>  </vehicle>    <vehicle id="368" depart="368">  <route edges="12 23 34 45"/>  </vehicle>    <vehicle id="369" depart="369">  <route edges="62 29"/>  </vehicle>    <vehicle id="370" depart="370">  <route edges="73 310"/>  </vehicle>    <vehicle id="371" depart="371">  <route edges="84 411"/>  </vehicle>    <vehicle id="372" depart="372">  <route edges="54 43 32 21"/>  </vehicle>    <vehicle id="373" depart="373">  <route edges="92 26"/>  </vehicle>    <vehicle id="374" depart="374">  <route edges="103 37"/>  </vehicle>    <vehicle id="375" depart="375">  <route edges="114 48"/>  </vehicle>    <vehicle id="376" depart="376">  <route edges="12 23 34 45"/>  </vehicle>    <vehicle id="377" depart="377">  <route edges="62 29"/>  </vehicle>    <vehicle id="378" depart="378">  <route edges="73 310"/>  </vehicle>    <vehicle id="379" depart="379">  <route edges="84 411"/>  </vehicle>    <vehicle id="380" depart="380">  <route edges="54 43 32 21"/>  </vehicle>    <vehicle id="381" depart="381">  <route edges="92 26"/>  </vehicle>    <vehicle id="382" depart="382">  <route edges="103 37"/>  </vehicle>    <vehicle id="383" depart="383">  <route edges="114 48"/>  </vehicle>    <vehicle id="384" depart="384">  <route edges="12 23 34 45"/>  </vehicle>    <vehicle id="385" depart="385">  <route edges="62 29"/>  </vehicle>    <vehicle id="386" depart="386">  <route edges="73 310"/>  </vehicle>    <vehicle id="387" depart="387">  <route edges="84 411"/>  </vehicle>    <vehicle id="388" depart="388">  <route edges="54 43 32 21"/>  </vehicle>    <vehicle id="389" depart="389">  <route edges="92 26"/>  </vehicle>    <vehicle id="390" depart="390">  <route edges="103 37"/>  </vehicle>    <vehicle id="391" depart="391">  <route edges="114 48"/>  </vehicle>    <vehicle id="392" depart="392">  <route edges="12 23 34 45"/>  </vehicle>    <vehicle id="393" depart="393">  <route edges="62 29"/>  </vehicle>    <vehicle id="394" depart="394">  <route edges="73 310"/>  </vehicle>    <vehicle id="395" depart="395">  <route edges="84 411"/>  </vehicle>    <vehicle id="396" depart="396">  <route edges="54 43 32 21"/>  </vehicle>    <vehicle id="397" depart="397">  <route edges="92 26"/>  </vehicle>    <vehicle id="398" depart="398">  <route edges="103 37"/>  </vehicle>    <vehicle id="399" depart="399">  <route edges="114 48"/>  </vehicle>    <vehicle id="400" depart="400">  <route edges="12 23 34 45"/>  </vehicle>    <vehicle id="401" depart="401">  <route edges="62 29"/>  </vehicle>    <vehicle id="402" depart="402">  <route edges="73 310"/>  </vehicle>    <vehicle id="403" depart="403">  <route edges="84 411"/>  </vehicle>    <vehicle id="404" depart="404">  <route edges="54 43 32 21"/>  </vehicle>    <vehicle id="405" depart="405">  <route edges="92 26"/>  </vehicle>    <vehicle id="406" depart="406">  <route edges="103 37"/>  </vehicle>    <vehicle id="407" depart="407">  <route edges="114 48"/>  </vehicle>    <vehicle id="408" depart="408">  <route edges="12 23 34 45"/>  </vehicle>    <vehicle id="409" depart="409">  <route edges="62 29"/>  </vehicle>    <vehicle id="410" depart="410">  <route edges="73 310"/>  </vehicle>    <vehicle id="411" depart="411">  <route edges="84 411"/>  </vehicle>    <vehicle id="412" depart="412">  <route edges="54 43 32 21"/>  </vehicle>    <ve